/*--------------------------------*- C++ -*----------------------------------*\
| =========                 |                                                 |
| \\      /  F ield         | OpenFOAM: The Open Source CFD Toolbox           |
|  \\    /   O peration     | Version:  v2012                                 |
|   \\  /    A nd           | Website:  www.openfoam.com                      |
|    \\/     M anipulation  |                                                 |
\*---------------------------------------------------------------------------*/
FoamFile
{
    version     2.0;
    format      ascii;
    class       polyBoundaryMesh;
    location    "constant/polyMesh";
    object      boundary;
}
// * * * * * * * * * * * * * * * * * * * * * * * * * * * * * * * * * * * * * //

4
(
    frontAndBack
    {
        type            empty;
        inGroups        1(empty);
        nFaces          11200;
        startFace       10964;
    }
    inlet
    {
        type            patch;
        nFaces          20;
        startFace       22164;
    }
    outlet
    {
        type            patch;
        nFaces          36;
        startFace       22184;
    }
    walls
    {
        type            wall;
        inGroups        1(wall);
        nFaces          416;
        startFace       22220;
    }
)

// ************************************************************************* //
